Version 4
SHEET 1 960 680
WIRE 832 -224 832 -256
WIRE 576 -160 576 -192
WIRE 832 -128 832 -144
WIRE 896 -128 832 -128
WIRE 832 -112 832 -128
WIRE 576 -64 576 -80
WIRE 832 -16 832 -32
WIRE -928 0 -992 0
WIRE -320 16 -320 0
WIRE -928 32 -928 0
WIRE -352 48 -384 48
WIRE -384 80 -384 48
WIRE -352 112 -352 48
WIRE -352 112 -368 112
WIRE -320 128 -320 96
WIRE -144 128 -144 96
WIRE -144 128 -320 128
WIRE 0 128 -144 128
WIRE 192 128 192 64
WIRE -928 144 -928 112
WIRE -368 144 -368 112
WIRE 0 144 0 128
WIRE 160 144 0 144
WIRE 304 160 224 160
WIRE 320 160 304 160
WIRE 160 176 128 176
WIRE 192 224 192 192
WIRE -320 240 -320 208
WIRE -992 256 -992 0
WIRE -368 256 -368 192
WIRE -368 256 -992 256
WIRE 32 288 -48 288
WIRE 128 288 128 176
WIRE 128 288 112 288
WIRE 144 288 128 288
WIRE 304 288 304 160
WIRE 304 288 224 288
FLAG 192 224 0
FLAG 320 160 out
FLAG 576 -64 0
FLAG 576 -192 V3.3
FLAG 192 64 V3.3
FLAG 832 -16 0
FLAG 896 -128 Vref
FLAG 832 -256 V3.3
FLAG -48 288 Vref
FLAG -320 240 0
FLAG -144 96 pulse
FLAG -320 0 V3.3
FLAG -928 144 0
FLAG -384 80 0
SYMBOL OpAmps\\LT1013 192 96 R0
SYMATTR InstName U1
SYMBOL voltage 576 -176 R0
WINDOW 123 0 0 Left 0
WINDOW 39 0 0 Left 0
SYMATTR InstName V1
SYMATTR Value 3.3
SYMBOL res 128 272 R90
WINDOW 0 0 56 VBottom 2
WINDOW 3 32 56 VTop 2
SYMATTR InstName R1
SYMATTR Value 10000
SYMBOL res 240 272 R90
WINDOW 0 0 56 VBottom 2
WINDOW 3 32 56 VTop 2
SYMATTR InstName R2
SYMATTR Value 23000
SYMBOL res 816 -240 R0
SYMATTR InstName R3
SYMATTR Value 5000
SYMBOL res 816 -128 R0
SYMATTR InstName R4
SYMATTR Value 10000
SYMBOL sw -320 112 R0
SYMATTR InstName S1
SYMATTR Value MYSW
SYMBOL res -336 0 R0
SYMATTR InstName R5
SYMATTR Value 4.7k
SYMBOL voltage -928 16 R0
WINDOW 123 0 0 Left 0
WINDOW 39 0 0 Left 0
SYMATTR InstName V2
SYMATTR Value PWL file=C:\Projects\datalogger\pulse.txt
TEXT 256 -112 Left 2 !.tran 0 100m 0
TEXT -792 -96 Left 2 !.model MYSW SW(Ron=1 Roff=1Meg Vt=.5 Vh=-.4)
